Circuit: * C:\Users\123ab\OneDrive\Documents\Learning_Material\HSE\workshop\workshop5\TASK5\wslogic-20181010T015738Z-001\wslogic\hsewslogic1\sch\TTLinverter\TTLinverter.asc

WARNING: Specified period is not longer than the sum of Trise, Tfall, and Ton for v2.  Increasing period to 5.00002e-007
Direct Newton iteration for .op point succeeded.

Date: Tue Oct 23 16:49:09 2018
Total elapsed time: 0.369 seconds.

tnom = 27
temp = 27
method = modified trap
totiter = 4469
traniter = 4450
tranpoints = 2163
accept = 2135
rejected = 28
matrix size = 24
fillins = 14
solver = Normal
Matrix Compiler1: 2.34 KB object code size  0.5/0.3/[0.2]
Matrix Compiler2: off  [0.3]/0.3/0.3

