Circuit: * C:\Users\123ab\OneDrive\Documents\Learning_Material\HSE\workshop\workshop5\TASK1\hsewslogic1\sch\Draft1.asc

Direct Newton iteration for .op point succeeded.

Date: Fri Sep 28 13:20:18 2018
Total elapsed time: 0.110 seconds.

tnom = 27
temp = 27
method = modified trap
totiter = 2615
traniter = 2591
tranpoints = 1132
accept = 957
rejected = 175
matrix size = 41
fillins = 6
solver = Normal
Matrix Compiler1: 3.24 KB object code size  0.7/0.4/[0.3]
Matrix Compiler2: off  [0.3]/0.5/0.4

