Circuit: * C:\Users\123ab\OneDrive\Documents\Learning_Material\HSE\workshop\workshop5\TASK5\wslogic-20181010T015738Z-001\wslogic\hsewslogic1\sch\ECL\ECL.asc

Direct Newton iteration for .op point succeeded.

Date: Tue Oct 23 16:49:50 2018
Total elapsed time: 0.540 seconds.

tnom = 27
temp = 27
method = modified trap
totiter = 4223
traniter = 4199
tranpoints = 2099
accept = 1925
rejected = 174
matrix size = 41
fillins = 6
solver = Normal
Matrix Compiler1:     185 opcodes  1.6/[0.7]/0.8
Matrix Compiler2: 3.65 KB object code size  0.5/2.3/[0.4]

