Circuit: * C:\Users\123ab\OneDrive\Documents\Learning_Material\HSE\workshop\workshop5\TASK2\TTLinverter\TTLinverter\Draft2.asc


Date: Sat Sep 22 11:08:36 2018
Total elapsed time: 0.154 seconds.

tnom = 27
temp = 27
method = trap
totiter = 225
traniter = 0
tranpoints = 0
accept = 0
rejected = 0
matrix size = 8
fillins = 2
solver = Normal
Matrix Compiler1: 638 bytes object code size  0.1/0.1/[0.1]
Matrix Compiler2: 710 bytes object code size  0.1/0.1/[0.1]

