Circuit: * C:\Users\123ab\OneDrive\Documents\Learning_Material\HSE\workshop\workshop5\TASK2\TTLinverter\TTLinverter\STTL.asc

WARNING: Specified period is not longer than the sum of Trise, Tfall, and Ton for v2.  Increasing period to 5.00002e-007
Direct Newton iteration for .op point succeeded.

Date: Sat Sep 22 10:44:42 2018
Total elapsed time: 0.339 seconds.

tnom = 27
temp = 27
method = modified trap
totiter = 4412
traniter = 4398
tranpoints = 2182
accept = 2152
rejected = 30
matrix size = 34
fillins = 32
solver = Normal
Matrix Compiler1: 4.84 KB object code size  0.7/0.4/[0.3]
Matrix Compiler2: 3.66 KB object code size  0.3/0.4/[0.2]

