Circuit: * C:\Users\123ab\OneDrive\Documents\Learning_Material\HSE\workshop\workshop5\TASK2\TTLinverter\TTLinverter\TTLinverter.asc

WARNING: Specified period is not longer than the sum of Trise, Tfall, and Ton for v2.  Increasing period to 5.00002e-007
Direct Newton iteration for .op point succeeded.

Date: Fri Sep 21 11:25:48 2018
Total elapsed time: 0.376 seconds.

tnom = 27
temp = 27
method = modified trap
totiter = 4469
traniter = 4450
tranpoints = 2163
accept = 2135
rejected = 28
matrix size = 24
fillins = 14
solver = Normal
Matrix Compiler1: 2.34 KB object code size  0.4/0.2/[0.2]
Matrix Compiler2:     176 opcodes  0.2/[0.2]/0.3

